ethene
  xyz-read
explicit double bond
  6  5  0  0  0  0            999 V2000
   -0.6700    0.0000    0.0000 C   0  0  0  0  0  0  0  0  0  0  0  0
    0.6700    0.0000    0.0000 C   0  0  0  0  0  0  0  0  0  0  0  0
   -1.2300    0.9200    0.0000 H   0  0  0  0  0  0  0  0  0  0  0  0
   -1.2300   -0.9200    0.0000 H   0  0  0  0  0  0  0  0  0  0  0  0
    1.2300    0.9200    0.0000 H   0  0  0  0  0  0  0  0  0  0  0  0
    1.2300   -0.9200    0.0000 H   0  0  0  0  0  0  0  0  0  0  0  0
  1  2  2  0  0  0  0
  1  3  1  0  0  0  0
  1  4  1  0  0  0  0
  2  5  1  0  0  0  0
  2  6  1  0  0  0  0
M  END
$$$$
